<?xml version="1.0" encoding="UTF-8"?>
<!DOCTYPE facilities SYSTEM "http://www.matsim.org/files/dtd/facilities_v1.dtd">

<facilities>
	<facility id="x0" x="188693.48" y="357086.2">
		<activity type="Others">
		</activity>
		<activity type="casa">
		</activity>
	</facility>
	<facility id="x1" x="174826.7" y="360335.18">
		<activity type="Education">
		</activity>
		<activity type="Health">
		</activity>
		<activity type="Leisure">
		</activity>
		<activity type="Others">
		</activity>
		<activity type="Restaurant">
		</activity>
		<activity type="Shopping">
		</activity>
		<activity type="Work">
		</activity>
		<activity type="casa">
		</activity>
	</facility>
	<facility id="x10" x="208082.32" y="398294.37">
	</facility>
	<facility id="x100" x="189296.98" y="360373.01">
		<activity type="casa">
		</activity>
	</facility>
	<facility id="x1000" x="138223.23" y="351262.59">
		<activity type="casa">
		</activity>
	</facility>
	<facility id="x10000" x="206828.69" y="361345.33">
		<activity type="Work">
		</activity>
	</facility>
	<facility id="x10001" x="173836.9" y="365151.76">
		<activity type="Work">
		</activity>
	</facility>
	<facility id="x10002" x="178126.24" y="353134.2">
		<activity type="Work">
		</activity>
	</facility>
	<facility id="x10003" x="206729.97" y="361030.7">
		<activity type="Shopping">
		</activity>
	</facility>
	<facility id="x10004" x="191252.05" y="380705.99">
		<activity type="casa">
		</activity>
	</facility>
	<facility id="x10005" x="175261.52" y="359972.31">
		<activity type="Work">
		</activity>
	</facility>
	<facility id="x10006" x="180632.01" y="328194.33">
		<activity type="casa">
		</activity>
	</facility>
	<facility id="x10007" x="180725.6" y="328324.51">
		<activity type="Work">
		</activity>
	</facility>
	<facility id="x10008" x="220671.95" y="366771.68">
		<activity type="casa">
		</activity>
	</facility>
	<facility id="x10009" x="206662.95" y="361128.54">
		<activity type="Shopping">
		</activity>
	</facility>
	<facility id="x1001" x="144018.07" y="358149.84">
		<activity type="Education">
		</activity>
		<activity type="Work">
		</activity>
	</facility>
	<facility id="x10010" x="157695.43" y="333124.46">
		<activity type="casa">
		</activity>
	</facility>
	<facility id="x10011" x="158025.66" y="332984.3">
		<activity type="casa">
		</activity>
	</facility>
	<facility id="x10012" x="175807.65" y="360252.51">
		<activity type="Work">
		</activity>
	</facility>
	<facility id="x10013" x="147557.69" y="371591.85">
		<activity type="casa">
		</activity>
	</facility>
	<facility id="x10014" x="161420.69" y="361652.34">
		<activity type="casa">
		</activity>
	</facility>
	<facility id="x10015" x="154985.73" y="358495.0">
		<activity type="Others">
		</activity>
		<activity type="Work">
		</activity>
	</facility>
	<facility id="x10016" x="157708.3" y="344450.18">
		<activity type="casa">
		</activity>
	</facility>
	<facility id="x10017" x="149381.32" y="350300.83">
		<activity type="casa">
		</activity>
	</facility>
	<facility id="x10018" x="176257.9668" y="358677.3082">
		<activity type="casa">
		</activity>
	</facility>
	<facility id="x10019" x="174682.0779" y="360964.3353">
		<activity type="casa">
		</activity>
	</facility>
	<facility id="x1002" x="143143.31" y="360924.27">
		<activity type="Agriculture">
		</activity>
		<activity type="Work">
		</activity>
	</facility>
	<facility id="x10020" x="168445.5847" y="359132.4887">
		<activity type="casa">
		</activity>
	</facility>
	<facility id="x10021" x="143445.44" y="353605.07">
		<activity type="casa">
		</activity>
	</facility>
	<facility id="x10022" x="148420.38" y="337430.45">
		<activity type="casa">
		</activity>
	</facility>
	<facility id="x10023" x="156078.78" y="368371.38">
		<activity type="casa">
		</activity>
	</facility>
	<facility id="x10024" x="170346.6369" y="363917.3387">
		<activity type="Restaurant">
		</activity>
		<activity type="casa">
		</activity>
	</facility>
	<facility id="x10025" x="172032.4896" y="358903.6134">
		<activity type="casa">
		</activity>
	</facility>
	<facility id="x10026" x="174601.94" y="360628.57">
		<activity type="Health">
		</activity>
	</facility>
	<facility id="x10027" x="171223.67" y="338262.24">
		<activity type="casa">
		</activity>
	</facility>
	<facility id="x10028" x="161347.63" y="337485.44">
		<activity type="casa">
		</activity>
	</facility>
	<facility id="x10029" x="157264.58" y="354426.15">
		<activity type="casa">
		</activity>
	</facility>
	<facility id="x1003" x="142397.87" y="355461.4">
		<activity type="casa">
		</activity>
	</facility>
	<facility id="x10030" x="175185.559" y="368645.8516">
		<activity type="casa">
		</activity>
	</facility>
	<facility id="x10031" x="200229.63" y="381022.37">
		<activity type="casa">
		</activity>
	</facility>
	<facility id="x10032" x="140914.31" y="341594.62">
		<activity type="casa">
		</activity>
	</facility>
	<facility id="x10033" x="142352.09" y="335007.88">
		<activity type="casa">
		</activity>
	</facility>
	<facility id="x10034" x="142346.31" y="334998.13">
		<activity type="casa">
		</activity>
	</facility>
	<facility id="x10035" x="175754.7489" y="358271.0434">
		<activity type="casa">
		</activity>
	</facility>
	<facility id="x10036" x="175695.1" y="358422.65">
		<activity type="Work">
		</activity>
	</facility>
	<facility id="x10037" x="200291.28" y="381015.9">
		<activity type="casa">
		</activity>
	</facility>
	<facility id="x10038" x="169137.82" y="376840.32">
		<activity type="casa">
		</activity>
	</facility>
	<facility id="x10039" x="143513.14" y="353667.35">
		<activity type="casa">
		</activity>
	</facility>
	<facility id="x1004" x="161877.13" y="375054.18">
		<activity type="casa">
		</activity>
	</facility>
	<facility id="x10040" x="159681.7" y="319543.56">
		<activity type="casa">
		</activity>
	</facility>
	<facility id="x10041" x="172140.94" y="360319.5851">
		<activity type="casa">
		</activity>
	</facility>
	<facility id="x10042" x="175051.66" y="360212.68">
		<activity type="Work">
		</activity>
	</facility>
	<facility id="x10043" x="167254.44" y="358016.75">
		<activity type="Work">
		</activity>
	</facility>
	<facility id="x10044" x="182918.64" y="355183.28">
		<activity type="casa">
		</activity>
	</facility>
	<facility id="x10045" x="199049.89" y="327556.47">
		<activity type="casa">
		</activity>
	</facility>
	<facility id="x10046" x="157827.44" y="344097.58">
		<activity type="casa">
		</activity>
	</facility>
	<facility id="x10047" x="165275.59" y="347569.22">
		<activity type="casa">
		</activity>
	</facility>
	<facility id="x10048" x="175953.3308" y="361061.0153">
		<activity type="casa">
		</activity>
	</facility>
	<facility id="x10049" x="199009.13" y="327558.07">
		<activity type="casa">
		</activity>
	</facility>
	<facility id="x1005" x="144832.6" y="356085.06">
		<activity type="Others">
		</activity>
		<activity type="Work">
		</activity>
	</facility>
	<facility id="x10050" x="168854.34" y="380177.8">
		<activity type="casa">
		</activity>
	</facility>
	<facility id="x10051" x="168292.28" y="388707.89">
		<activity type="casa">
		</activity>
	</facility>
	<facility id="x10052" x="168916.26" y="379831.07">
		<activity type="casa">
		</activity>
	</facility>
	<facility id="x10053" x="136597.62" y="355508.7">
		<activity type="casa">
		</activity>
	</facility>
	<facility id="x10054" x="177312.551" y="370618.1832">
		<activity type="casa">
		</activity>
	</facility>
	<facility id="x10055" x="174566.5844" y="358378.3552">
		<activity type="casa">
		</activity>
	</facility>
	<facility id="x10056" x="174567.55" y="360088.73">
		<activity type="Work">
		</activity>
	</facility>
	<facility id="x10057" x="161509.58" y="362182.56">
		<activity type="casa">
		</activity>
	</facility>
	<facility id="x10058" x="193174.89" y="354129.57">
		<activity type="casa">
		</activity>
	</facility>
	<facility id="x10059" x="166824.8387" y="362571.6333">
		<activity type="casa">
		</activity>
	</facility>
	<facility id="x1006" x="160882.02" y="375238.24">
		<activity type="casa">
		</activity>
	</facility>
	<facility id="x10060" x="155766.16" y="360739.16">
		<activity type="casa">
		</activity>
	</facility>
	<facility id="x10061" x="175782.31" y="347902.09">
		<activity type="casa">
		</activity>
	</facility>
	<facility id="x10062" x="154684.65" y="336679.85">
		<activity type="casa">
		</activity>
	</facility>
	<facility id="x10063" x="179302.6637" y="361216.3909">
		<activity type="casa">
		</activity>
	</facility>
	<facility id="x10064" x="177995.1864" y="375408.7889">
		<activity type="casa">
		</activity>
	</facility>
	<facility id="x10065" x="176315.9429" y="360351.9319">
		<activity type="casa">
		</activity>
	</facility>
	<facility id="x10066" x="176017.62" y="347727.66">
		<activity type="casa">
		</activity>
	</facility>
	<facility id="x10067" x="157688.75" y="349246.44">
		<activity type="casa">
		</activity>
	</facility>
	<facility id="x10068" x="145641.32" y="348115.51">
		<activity type="casa">
		</activity>
	</facility>
	<facility id="x10069" x="193447.98" y="337356.73">
		<activity type="casa">
		</activity>
	</facility>
	<facility id="x1007" x="138829.9" y="355083.4">
		<activity type="casa">
		</activity>
	</facility>
	<facility id="x10070" x="194648.98" y="338676.59">
		<activity type="Work">
		</activity>
	</facility>
	<facility id="x10071" x="159411.37" y="319299.15">
		<activity type="casa">
		</activity>
	</facility>
	<facility id="x10072" x="177403.1952" y="370968.028">
		<activity type="casa">
		</activity>
	</facility>
	<facility id="x10073" x="173177.42" y="346973.72">
		<activity type="casa">
		</activity>
	</facility>
	<facility id="x10074" x="175795.19" y="347891.55">
		<activity type="casa">
		</activity>
	</facility>
	<facility id="x10075" x="149414.43" y="350278.9">
		<activity type="casa">
		</activity>
	</facility>
	<facility id="x10076" x="174441.4991" y="359164.3052">
		<activity type="casa">
		</activity>
	</facility>
	<facility id="x10077" x="174567.12" y="360206.1">
		<activity type="Work">
		</activity>
	</facility>
	<facility id="x10078" x="175938.7701" y="364355.0206">
		<activity type="casa">
		</activity>
	</facility>
	<facility id="x10079" x="184554.23" y="373632.29">
		<activity type="casa">
		</activity>
	</facility>
	<facility id="x1008" x="222920.1" y="376771.6">
		<activity type="casa">
		</activity>
	</facility>
	<facility id="x10080" x="149033.12" y="384242.56">
		<activity type="casa">
		</activity>
	</facility>
	<facility id="x10081" x="164926.39" y="357781.67">
		<activity type="casa">
		</activity>
	</facility>
	<facility id="x10082" x="175025.67" y="359724.82">
		<activity type="Health">
		</activity>
	</facility>
	<facility id="x10083" x="136625.48" y="355554.31">
		<activity type="casa">
		</activity>
	</facility>
	<facility id="x10084" x="174009.62" y="358168.92">
		<activity type="Restaurant">
		</activity>
	</facility>
	<facility id="x10085" x="175094.0106" y="354924.0408">
		<activity type="casa">
		</activity>
	</facility>
	<facility id="x10086" x="155702.19" y="360776.44">
		<activity type="casa">
		</activity>
	</facility>
	<facility id="x10087" x="176120.66" y="359286.79">
		<activity type="Health">
		</activity>
	</facility>
	<facility id="x10088" x="176338.4318" y="360505.5794">
		<activity type="casa">
		</activity>
	</facility>
	<facility id="x10089" x="161642.37" y="357674.88">
		<activity type="casa">
		</activity>
	</facility>
	<facility id="x1009" x="222926.14" y="376784.32">
		<activity type="Work">
		</activity>
	</facility>
	<facility id="x10090" x="192822.17" y="354061.55">
		<activity type="casa">
		</activity>
	</facility>
	<facility id="x10091" x="193456.4" y="337303.7">
		<activity type="casa">
		</activity>
	</facility>
	<facility id="x10092" x="177343.1958" y="372361.5412">
		<activity type="casa">
		</activity>
	</facility>
	<facility id="x10093" x="176258.9" y="360964.1">
		<activity type="Restaurant">
		</activity>
	</facility>
	<facility id="x10094" x="175057.4404" y="360220.9745">
		<activity type="casa">
		</activity>
	</facility>
	<facility id="x10095" x="183333.34" y="346824.95">
		<activity type="casa">
		</activity>
	</facility>
	<facility id="x10096" x="143993.42" y="357768.71">
		<activity type="casa">
		</activity>
	</facility>
	<facility id="x10097" x="175119.09" y="359626.95">
		<activity type="Others">
		</activity>
		<activity type="Work">
		</activity>
	</facility>
	<facility id="x10098" x="193620.93" y="354196.01">
		<activity type="casa">
		</activity>
	</facility>
	<facility id="x10099" x="168914.11" y="376974.55">
		<activity type="casa">
		</activity>
	</facility>
	<facility id="x101" x="219440.8" y="369509.4">
		<activity type="casa">
		</activity>
	</facility>
	<facility id="x1010" x="222937.62" y="376982.03">
		<activity type="Leisure">
		</activity>
	</facility>
	<facility id="x10100" x="209155.82" y="376680.32">
		<activity type="casa">
		</activity>
	</facility>
	<facility id="x10101" x="183269.99" y="346842.55">
		<activity type="casa">
		</activity>
	</facility>
	<facility id="x10102" x="138538.98" y="351496.81">
		<activity type="casa">
		</activity>
	</facility>
	<facility id="x10103" x="159790.71" y="319646.08">
		<activity type="casa">
		</activity>
	</facility>
	<facility id="x10104" x="175835.98" y="358515.83">
		<activity type="Work">
		</activity>
	</facility>
	<facility id="x10105" x="161659.12" y="357665.24">
		<activity type="casa">
		</activity>
	</facility>
	<facility id="x10106" x="154886.42" y="336559.63">
		<activity type="casa">
		</activity>
	</facility>
	<facility id="x10107" x="174532.8144" y="361927.2951">
		<activity type="casa">
		</activity>
	</facility>
	<facility id="x10108" x="161612.42" y="357676.91">
		<activity type="casa">
		</activity>
	</facility>
	<facility id="x10109" x="209506.5" y="377100.97">
		<activity type="casa">
		</activity>
	</facility>
	<facility id="x1011" x="161389.3" y="374513.8">
		<activity type="casa">
		</activity>
	</facility>
	<facility id="x10110" x="174872.6137" y="360060.2811">
		<activity type="casa">
		</activity>
	</facility>
	<facility id="x10111" x="168803.6" y="380251.72">
		<activity type="casa">
		</activity>
	</facility>
	<facility id="x10112" x="171721.47" y="370446.6">
		<activity type="casa">
		</activity>
	</facility>
	<facility id="x10113" x="178503.8388" y="356179.148">
		<activity type="casa">
		</activity>
	</facility>
	<facility id="x10114" x="174498.95" y="360369.29">
		<activity type="Work">
		</activity>
	</facility>
	<facility id="x10115" x="140872.64" y="341714.14">
		<activity type="casa">
		</activity>
	</facility>
	<facility id="x10116" x="168674.28" y="366538.26">
		<activity type="Work">
		</activity>
	</facility>
	<facility id="x10117" x="148429.68" y="384158.33">
		<activity type="casa">
		</activity>
	</facility>
	<facility id="x10118" x="166582.37" y="362975.98">
		<activity type="Work">
		</activity>
	</facility>
	<facility id="x10119" x="200225.54" y="381020.74">
		<activity type="casa">
		</activity>
	</facility>
	<facility id="x1012" x="161057.13" y="375387.64">
		<activity type="casa">
		</activity>
	</facility>
	<facility id="x10120" x="162201.4358" y="365655.1659">
		<activity type="casa">
		</activity>
	</facility>
	<facility id="x10121" x="166560.31" y="362541.01">
		<activity type="Work">
		</activity>
	</facility>
	<facility id="x10122" x="148428.02" y="384144.97">
		<activity type="casa">
		</activity>
	</facility>
	<facility id="x10123" x="154688.09" y="336706.3">
		<activity type="casa">
		</activity>
	</facility>
	<facility id="x10124" x="179695.197" y="359797.4381">
		<activity type="casa">
		</activity>
	</facility>
	<facility id="x10125" x="150877.63" y="361002.23">
		<activity type="casa">
		</activity>
	</facility>
	<facility id="x10126" x="136606.75" y="355531.82">
		<activity type="casa">
		</activity>
	</facility>
	<facility id="x10127" x="174085.47" y="360774.42">
		<activity type="Work">
		</activity>
	</facility>
	<facility id="x10128" x="142882.46" y="345147.5">
		<activity type="casa">
		</activity>
	</facility>
	<facility id="x10129" x="174470.6" y="360436.72">
		<activity type="Work">
		</activity>
	</facility>
	<facility id="x1013" x="160916.49" y="375220.84">
		<activity type="casa">
		</activity>
	</facility>
	<facility id="x10130" x="150819.93" y="361022.36">
		<activity type="casa">
		</activity>
	</facility>
	<facility id="x10131" x="177573.3" y="360520.62">
		<activity type="Leisure">
		</activity>
	</facility>
	<facility id="x10132" x="193440.41" y="337295.28">
		<activity type="casa">
		</activity>
	</facility>
	<facility id="x10133" x="176791.5002" y="358520.8816">
		<activity type="casa">
		</activity>
	</facility>
	<facility id="x10134" x="175578.74" y="359866.66">
		<activity type="Others">
		</activity>
	</facility>
	<facility id="x10135" x="165703.0" y="350307.65">
		<activity type="casa">
		</activity>
	</facility>
	<facility id="x10136" x="199019.52" y="327558.87">
		<activity type="casa">
		</activity>
	</facility>
	<facility id="x10137" x="148421.0" y="337421.86">
		<activity type="casa">
		</activity>
	</facility>
	<facility id="x10138" x="168384.24" y="388486.19">
		<activity type="casa">
		</activity>
	</facility>
	<facility id="x10139" x="142792.05" y="344990.89">
		<activity type="casa">
		</activity>
	</facility>
	<facility id="x1014" x="138944.4" y="355370.5">
		<activity type="casa">
		</activity>
	</facility>
	<facility id="x10140" x="157711.49" y="344407.1">
		<activity type="casa">
		</activity>
	</facility>
	<facility id="x10141" x="145657.42" y="348094.33">
		<activity type="casa">
		</activity>
	</facility>
	<facility id="x10142" x="157252.11" y="354492.76">
		<activity type="casa">
		</activity>
	</facility>
	<facility id="x10143" x="175341.0" y="360342.9">
		<activity type="Work">
		</activity>
	</facility>
	<facility id="x10144" x="174347.0276" y="359033.4621">
		<activity type="casa">
		</activity>
	</facility>
	<facility id="x10145" x="172839.5193" y="356743.0984">
		<activity type="casa">
		</activity>
	</facility>
	<facility id="x10146" x="182911.18" y="355151.73">
		<activity type="casa">
		</activity>
	</facility>
	<facility id="x10147" x="149410.99" y="350287.93">
		<activity type="casa">
		</activity>
	</facility>
	<facility id="x10148" x="150858.84" y="361012.97">
		<activity type="casa">
		</activity>
	</facility>
	<facility id="x10149" x="138628.34" y="351294.92">
		<activity type="casa">
		</activity>
	</facility>
	<facility id="x1015" x="153560.18" y="378396.39">
		<activity type="casa">
		</activity>
	</facility>
	<facility id="x10150" x="179315.6" y="379660.94">
		<activity type="casa">
		</activity>
	</facility>
	<facility id="x10151" x="171201.54" y="338303.97">
		<activity type="casa">
		</activity>
	</facility>
	<facility id="x10152" x="174579.7232" y="358330.5686">
		<activity type="casa">
		</activity>
	</facility>
	<facility id="x10153" x="172163.57" y="359904.05">
		<activity type="Education">
		</activity>
	</facility>
	<facility id="x10154" x="200216.81" y="381019.52">
		<activity type="casa">
		</activity>
	</facility>
	<facility id="x10155" x="198967.57" y="327506.53">
		<activity type="casa">
		</activity>
	</facility>
	<facility id="x10156" x="157262.29" y="354466.83">
		<activity type="casa">
		</activity>
	</facility>
	<facility id="x10157" x="177748.4839" y="365018.4247">
		<activity type="casa">
		</activity>
	</facility>
	<facility id="x10158" x="155684.97" y="353666.34">
		<activity type="casa">
		</activity>
	</facility>
	<facility id="x10159" x="162693.0668" y="361949.0234">
		<activity type="casa">
		</activity>
	</facility>
	<facility id="x1016" x="149039.12" y="384595.16">
		<activity type="Agriculture">
		</activity>
		<activity type="Health">
		</activity>
		<activity type="Leisure">
		</activity>
		<activity type="Others">
		</activity>
		<activity type="Shopping">
		</activity>
		<activity type="Work">
		</activity>
	</facility>
	<facility id="x10160" x="162409.78" y="365736.24">
		<activity type="Work">
		</activity>
	</facility>
	<facility id="x10161" x="192841.15" y="354094.77">
		<activity type="casa">
		</activity>
	</facility>
	<facility id="x10162" x="150763.4" y="361010.61">
		<activity type="casa">
		</activity>
	</facility>
	<facility id="x10163" x="171904.87" y="355535.81">
		<activity type="casa">
		</activity>
	</facility>
	<facility id="x10164" x="156025.27" y="368393.36">
		<activity type="casa">
		</activity>
	</facility>
	<facility id="x10165" x="174573.87" y="360508.25">
		<activity type="Work">
		</activity>
	</facility>
	<facility id="x10166" x="174488.0889" y="359093.3812">
		<activity type="casa">
		</activity>
	</facility>
	<facility id="x10167" x="199042.29" y="327565.67">
		<activity type="casa">
		</activity>
	</facility>
	<facility id="x10168" x="174655.9" y="360101.85">
		<activity type="Others">
		</activity>
	</facility>
	<facility id="x10169" x="159574.31" y="319471.35">
		<activity type="casa">
		</activity>
	</facility>
	<facility id="x1017" x="166994.09" y="367202.95">
		<activity type="casa">
		</activity>
	</facility>
	<facility id="x10170" x="183374.8" y="346831.99">
		<activity type="casa">
		</activity>
	</facility>
	<facility id="x10171" x="176218.16" y="361058.27">
		<activity type="Work">
		</activity>
	</facility>
	<facility id="x10172" x="169149.1928" y="359521.1853">
		<activity type="casa">
		</activity>
	</facility>
	<facility id="x10173" x="174746.83" y="365138.14">
		<activity type="Work">
		</activity>
	</facility>
	<facility id="x10174" x="168379.89" y="388493.33">
		<activity type="casa">
		</activity>
	</facility>
	<facility id="x10175" x="142937.35" y="345221.77">
		<activity type="casa">
		</activity>
	</facility>
	<facility id="x10176" x="139732.22" y="355932.88">
		<activity type="casa">
		</activity>
	</facility>
	<facility id="x10177" x="174125.77" y="360749.41">
		<activity type="Work">
		</activity>
	</facility>
	<facility id="x10178" x="148421.0" y="337437.41">
		<activity type="casa">
		</activity>
	</facility>
	<facility id="x10179" x="138488.23" y="351578.44">
		<activity type="casa">
		</activity>
	</facility>
	<facility id="x1018" x="174654.32" y="360449.58">
		<activity type="Leisure">
		</activity>
	</facility>
	<facility id="x10180" x="222728.12" y="376746.47">
		<activity type="casa">
		</activity>
	</facility>
	<facility id="x10181" x="161590.96" y="357669.04">
		<activity type="casa">
		</activity>
	</facility>
	<facility id="x10182" x="200211.77" y="381015.33">
		<activity type="casa">
		</activity>
	</facility>
	<facility id="x10183" x="171192.47" y="338325.25">
		<activity type="casa">
		</activity>
	</facility>
	<facility id="x10184" x="177509.8537" y="372181.936">
		<activity type="casa">
		</activity>
	</facility>
	<facility id="x10185" x="200285.2" y="381007.8">
		<activity type="casa">
		</activity>
	</facility>
	<facility id="x10186" x="176053.91" y="347713.61">
		<activity type="casa">
		</activity>
	</facility>
	<facility id="x10187" x="168105.6812" y="359312.999">
		<activity type="casa">
		</activity>
	</facility>
	<facility id="x10188" x="174815.45" y="360161.29">
		<activity type="Work">
		</activity>
	</facility>
	<facility id="x10189" x="184566.89" y="373638.34">
		<activity type="casa">
		</activity>
	</facility>
	<facility id="x1019" x="141167.62" y="347170.29">
		<activity type="casa">
		</activity>
	</facility>
	<facility id="x10190" x="176734.1608" y="359002.5446">
		<activity type="casa">
		</activity>
	</facility>
	<facility id="x10191" x="165661.12" y="350394.99">
		<activity type="casa">
		</activity>
	</facility>
	<facility id="x10192" x="176340.229" y="358489.1085">
		<activity type="casa">
		</activity>
	</facility>
	<facility id="x10193" x="178447.7873" y="356294.697">
		<activity type="casa">
		</activity>
	</facility>
	<facility id="x10194" x="181229.67" y="357257.4">
		<activity type="Work">
		</activity>
	</facility>
	<facility id="x10195" x="168376.48" y="388488.36">
		<activity type="casa">
		</activity>
	</facility>
	<facility id="x10196" x="139738.74" y="348991.2">
		<activity type="casa">
		</activity>
	</facility>
	<facility id="x10197" x="193255.55" y="354169.11">
		<activity type="casa">
		</activity>
	</facility>
	<facility id="x10198" x="142352.82" y="334998.49">
		<activity type="casa">
		</activity>
	</facility>
	<facility id="x10199" x="161322.12" y="337459.73">
		<activity type="casa">
		</activity>
	</facility>
	<facility id="x102" x="219402.93" y="369460.72">
		<activity type="Work">
		</activity>
		<activity type="casa">
		</activity>
	</facility>
	<facility id="x1020" x="138757.86" y="355473.41">
		<activity type="Shopping">
		</activity>
	</facility>
	<facility id="x10200" x="184522.32" y="373642.61">
		<activity type="casa">
		</activity>
	</facility>
	<facility id="x10201" x="196083.98" y="367760.35">
		<activity type="casa">
		</activity>
	</facility>
	<facility id="x10202" x="156117.01" y="368346.73">
		<activity type="casa">
		</activity>
	</facility>
	<facility id="x10203" x="175885.9" y="364447.2">
		<activity type="Others">
		</activity>
		<activity type="Work">
		</activity>
	</facility>
	<facility id="x10204" x="174512.84" y="360494.98">
		<activity type="Others">
		</activity>
	</facility>
	<facility id="x10205" x="174980.85" y="360291.08">
		<activity type="Work">
		</activity>
	</facility>
	<facility id="x10206" x="171050.37" y="370626.43">
		<activity type="casa">
		</activity>
	</facility>
	<facility id="x10207" x="192708.29" y="354048.9">
		<activity type="casa">
		</activity>
	</facility>
	<facility id="x10208" x="176610.247" y="358515.2067">
		<activity type="casa">
		</activity>
	</facility>
	<facility id="x10209" x="175635.13" y="358268.49">
		<activity type="Others">
		</activity>
	</facility>
	<facility id="x1021" x="161178.19" y="375280.55">
		<activity type="casa">
		</activity>
	</facility>
	<facility id="x10210" x="148440.54" y="384137.46">
		<activity type="casa">
		</activity>
	</facility>
	<facility id="x10211" x="148462.24" y="384141.63">
		<activity type="casa">
		</activity>
	</facility>
	<facility id="x10212" x="168345.69" y="388826.98">
		<activity type="casa">
		</activity>
	</facility>
	<facility id="x10213" x="174151.24" y="360790.17">
		<activity type="Work">
		</activity>
	</facility>
	<facility id="x10214" x="175743.36" y="360358.85">
		<activity type="Work">
		</activity>
	</facility>
	<facility id="x10215" x="169561.0626" y="358933.5815">
		<activity type="casa">
		</activity>
	</facility>
	<facility id="x10216" x="174140.38" y="360807.44">
		<activity type="Work">
		</activity>
	</facility>
	<facility id="x10217" x="174205.59" y="360864.8">
		<activity type="Others">
		</activity>
	</facility>
	<facility id="x10218" x="209517.22" y="377095.36">
		<activity type="casa">
		</activity>
	</facility>
	<facility id="x10219" x="136591.34" y="355503.83">
		<activity type="casa">
		</activity>
	</facility>
	<facility id="x1022" x="133676.1" y="173178.05">
		<activity type="Others">
		</activity>
	</facility>
	<facility id="x10220" x="176737.34" y="359407.27">
		<activity type="Work">
		</activity>
	</facility>
	<facility id="x10221" x="139754.1" y="348982.97">
		<activity type="casa">
		</activity>
	</facility>
	<facility id="x10222" x="174501.83" y="359054.91">
		<activity type="Work">
		</activity>
	</facility>
	<facility id="x10223" x="157350.83" y="349187.26">
		<activity type="casa">
		</activity>
	</facility>
	<facility id="x10224" x="222684.93" y="376731.82">
		<activity type="casa">
		</activity>
	</facility>
	<facility id="x10225" x="201583.92" y="354101.23">
		<activity type="casa">
		</activity>
	</facility>
	<facility id="x10226" x="167938.35" y="377327.78">
		<activity type="casa">
		</activity>
	</facility>
	<facility id="x10227" x="165555.31" y="350269.47">
		<activity type="casa">
		</activity>
	</facility>
	<facility id="x10228" x="187240.49" y="366974.58">
		<activity type="casa">
		</activity>
	</facility>
	<facility id="x10229" x="177055.42" y="358887.33">
		<activity type="Work">
		</activity>
	</facility>
	<facility id="x1023" x="176010.68" y="360426.85">
		<activity type="Education">
		</activity>
		<activity type="Health">
		</activity>
		<activity type="Leisure">
		</activity>
		<activity type="Work">
		</activity>
		<activity type="casa">
		</activity>
	</facility>
	<facility id="x10230" x="139736.98" y="355887.07">
		<activity type="casa">
		</activity>
	</facility>
	<facility id="x10231" x="139720.63" y="349030.15">
		<activity type="casa">
		</activity>
	</facility>
	<facility id="x10232" x="209519.26" y="377082.08">
		<activity type="casa">
		</activity>
	</facility>
	<facility id="x10233" x="173720.45" y="379404.34">
		<activity type="Work">
		</activity>
	</facility>
	<facility id="x10234" x="156336.21" y="368040.1">
		<activity type="casa">
		</activity>
	</facility>
	<facility id="x10235" x="138527.62" y="351482.15">
		<activity type="casa">
		</activity>
	</facility>
	<facility id="x10236" x="209167.31" y="376598.29">
		<activity type="casa">
		</activity>
	</facility>
	<facility id="x10237" x="170982.8925" y="360271.8583">
		<activity type="casa">
		</activity>
	</facility>
	<facility id="x10238" x="174295.4" y="359381.72">
		<activity type="Shopping">
		</activity>
	</facility>
	<facility id="x10239" x="156257.99" y="368129.86">
		<activity type="casa">
		</activity>
	</facility>
	<facility id="x1024" x="153564.07" y="379386.41">
		<activity type="Work">
		</activity>
		<activity type="casa">
		</activity>
	</facility>
	<facility id="x10240" x="139733.25" y="349003.27">
		<activity type="casa">
		</activity>
	</facility>
	<facility id="x10241" x="138591.93" y="351367.73">
		<activity type="casa">
		</activity>
	</facility>
	<facility id="x10242" x="149394.65" y="350290.08">
		<activity type="casa">
		</activity>
	</facility>
	<facility id="x10243" x="139717.89" y="349051.0">
		<activity type="casa">
		</activity>
	</facility>
	<facility id="x10244" x="154193.09" y="336374.11">
		<activity type="casa">
		</activity>