<?xml version="1.0" encoding="UTF-8"?>
<!DOCTYPE facilities SYSTEM "http://www.matsim.org/files/dtd/facilities_v1.dtd">

<facilities>
	<facility id="x0" x="175056.58" y="359935.83">
		<activity type="Education">
		</activity>
	</facility>
	<facility id="x1" x="175590.6094" y="360281.5625">
		<activity type="Home">
		</activity>
	</facility>
	<facility id="x10" x="174910.08" y="360222.75">
		<activity type="Education">
		</activity>
	</facility>
	<facility id="x100" x="165703.0" y="350307.65">
		<activity type="Home">
		</activity>
	</facility>
	<facility id="x1000" x="173821.5551" y="358248.138">
		<activity type="Home">
		</activity>
	</facility>
	<facility id="x1001" x="172920.5901" y="357944.1877">
		<activity type="Home">
		</activity>
	</facility>
	<facility id="x1002" x="173901.5" y="358259.8">
		<activity type="Home">
		</activity>
	</facility>
	<facility id="x1003" x="173742.1562" y="358197.2315">
		<activity type="Home">
		</activity>
	</facility>
	<facility id="x1004" x="173730.1346" y="358175.2297">
		<activity type="Home">
		</activity>
	</facility>
	<facility id="x1005" x="180080.6528" y="359409.5412">
		<activity type="Home">
		</activity>
	</facility>
	<facility id="x1006" x="180170.014" y="360088.957">
		<activity type="Home">
		</activity>
	</facility>
	<facility id="x1007" x="180137.5532" y="359860.6941">
		<activity type="Home">
		</activity>
	</facility>
	<facility id="x1008" x="179723.2553" y="359705.1459">
		<activity type="Home">
		</activity>
	</facility>
	<facility id="x1009" x="179766.5091" y="359658.5473">
		<activity type="Home">
		</activity>
	</facility>
	<facility id="x101" x="167752.51" y="351770.98">
		<activity type="Home">
		</activity>
	</facility>
	<facility id="x1010" x="179725.3314" y="359701.5153">
		<activity type="Home">
		</activity>
	</facility>
	<facility id="x1011" x="179769.715" y="359653.797">
		<activity type="Home">
		</activity>
	</facility>
	<facility id="x1012" x="179692.4452" y="359746.2251">
		<activity type="Home">
		</activity>
	</facility>
	<facility id="x1013" x="179790.01" y="359716.78">
		<activity type="Home">
		</activity>
	</facility>
	<facility id="x1014" x="179657.1708" y="359849.7295">
		<activity type="Home">
		</activity>
	</facility>
	<facility id="x1015" x="179658.4496" y="359858.9369">
		<activity type="Home">
		</activity>
	</facility>
	<facility id="x1016" x="180156.5061" y="360094.5109">
		<activity type="Home">
		</activity>
	</facility>
	<facility id="x1017" x="179763.1842" y="359654.7108">
		<activity type="Home">
		</activity>
	</facility>
	<facility id="x1018" x="179763.1842" y="359671.0796">
		<activity type="Home">
		</activity>
	</facility>
	<facility id="x1019" x="180154.287" y="360078.5177">
		<activity type="Home">
		</activity>
	</facility>
	<facility id="x102" x="167914.43" y="350178.49">
		<activity type="Home">
		</activity>
	</facility>
	<facility id="x1020" x="179657.4266" y="359865.331">
		<activity type="Home">
		</activity>
	</facility>
	<facility id="x1021" x="180149.3235" y="360095.4863">
		<activity type="Home">
		</activity>
	</facility>
	<facility id="x1022" x="179695.197" y="359797.4381">
		<activity type="Home">
		</activity>
	</facility>
	<facility id="x1023" x="179657.9381" y="359855.7399">
		<activity type="Home">
		</activity>
	</facility>
	<facility id="x1024" x="180373.3503" y="359699.9193">
		<activity type="Home">
		</activity>
	</facility>
	<facility id="x1025" x="179761.6496" y="359659.3146">
		<activity type="Home">
		</activity>
	</facility>
	<facility id="x1026" x="179658.7054" y="359860.0879">
		<activity type="Home">
		</activity>
	</facility>
	<facility id="x1027" x="179760.3708" y="359665.9644">
		<activity type="Home">
		</activity>
	</facility>
	<facility id="x1028" x="180105.9481" y="359875.2377">
		<activity type="Home">
		</activity>
	</facility>
	<facility id="x1029" x="180250.7677" y="359599.9966">
		<activity type="Home">
		</activity>
	</facility>
	<facility id="x103" x="167848.45" y="351947.97">
		<activity type="Home">
		</activity>
	</facility>
	<facility id="x1030" x="179759.092" y="359680.0313">
		<activity type="Home">
		</activity>
	</facility>
	<facility id="x1031" x="180170.3587" y="360075.2333">
		<activity type="Home">
		</activity>
	</facility>
	<facility id="x1032" x="176543.94" y="358956.8589">
		<activity type="Home">
		</activity>
	</facility>
	<facility id="x1033" x="176817.4656" y="358980.1199">
		<activity type="Home">
		</activity>
	</facility>
	<facility id="x1034" x="176664.8989" y="357938.0529">
		<activity type="Home">
		</activity>
	</facility>
	<facility id="x1035" x="177177.4978" y="358196.8365">
		<activity type="Home">
		</activity>
	</facility>
	<facility id="x1036" x="176537.7618" y="358217.2848">
		<activity type="Home">
		</activity>
	</facility>
	<facility id="x1037" x="177140.9988" y="358248.0183">
		<activity type="Home">
		</activity>
	</facility>
	<facility id="x1038" x="176563.5065" y="357933.2829">
		<activity type="Home">
		</activity>
	</facility>
	<facility id="x1039" x="177071.3683" y="358118.3495">
		<activity type="Home">
		</activity>
	</facility>
	<facility id="x104" x="166853.04" y="353624.08">
		<activity type="Home">
		</activity>
	</facility>
	<facility id="x1040" x="176968.7278" y="358047.5542">
		<activity type="Home">
		</activity>
	</facility>
	<facility id="x1041" x="176504.95" y="357848.98">
		<activity type="Home">
		</activity>
	</facility>
	<facility id="x1042" x="176702.8352" y="358205.4891">
		<activity type="Home">
		</activity>
	</facility>
	<facility id="x1043" x="175673.0561" y="358428.0149">
		<activity type="Home">
		</activity>
	</facility>
	<facility id="x1044" x="176902.9319" y="359016.7376">
		<activity type="Home">
		</activity>
	</facility>
	<facility id="x1045" x="176048.4852" y="358652.9487">
		<activity type="Home">
		</activity>
	</facility>
	<facility id="x1046" x="190998.25" y="359711.29">
		<activity type="Work">
		</activity>
	</facility>
	<facility id="x1047" x="186482.15" y="359655.4">
		<activity type="Home">
		</activity>
	</facility>
	<facility id="x1048" x="187435.42" y="360128.44">
		<activity type="Home">
		</activity>
	</facility>
	<facility id="x1049" x="190950.7" y="359837.3">
		<activity type="Work">
		</activity>
	</facility>
	<facility id="x105" x="168670.25" y="349064.44">
		<activity type="Work">
		</activity>
	</facility>
	<facility id="x1050" x="187090.36" y="361883.16">
		<activity type="Home">
		</activity>
	</facility>
	<facility id="x1051" x="189265.11" y="363847.38">
		<activity type="Home">
		</activity>
	</facility>
	<facility id="x1052" x="189842.04" y="360376.39">
		<activity type="Work">
		</activity>
	</facility>
	<facility id="x1053" x="185197.57" y="362620.02">
		<activity type="Home">
		</activity>
	</facility>
	<facility id="x1054" x="189301.36" y="360202.53">
		<activity type="Work">
		</activity>
	</facility>
	<facility id="x1055" x="189334.02" y="360073.25">
		<activity type="Home">
		</activity>
	</facility>
	<facility id="x1056" x="189157.78" y="360201.59">
		<activity type="Work">
		</activity>
	</facility>
	<facility id="x1057" x="189352.34" y="360245.8">
		<activity type="Home">
		</activity>
	</facility>
	<facility id="x1058" x="189723.17" y="360525.8">
		<activity type="Work">
		</activity>
	</facility>
	<facility id="x1059" x="189705.64" y="359905.6">
		<activity type="Home">
		</activity>
	</facility>
	<facility id="x106" x="166353.71" y="354157.45">
		<activity type="Home">
		</activity>
	</facility>
	<facility id="x1060" x="189366.25" y="360472.84">
		<activity type="Work">
		</activity>
	</facility>
	<facility id="x1061" x="188478.47" y="361581.29">
		<activity type="Home">
		</activity>
	</facility>
	<facility id="x1062" x="190176.07" y="358940.21">
		<activity type="Home">
		</activity>
	</facility>
	<facility id="x1063" x="189586.49" y="360018.18">
		<activity type="Work">
		</activity>
	</facility>
	<facility id="x1064" x="189382.13" y="360415.54">
		<activity type="Home">
		</activity>
	</facility>
	<facility id="x1065" x="188033.79" y="361538.09">
		<activity type="Home">
		</activity>
	</facility>
	<facility id="x1066" x="188655.02" y="360085.92">
		<activity type="Home">
		</activity>
	</facility>
	<facility id="x1067" x="186289.23" y="359508.7">
		<activity type="Home">
		</activity>
	</facility>
	<facility id="x1068" x="189671.5" y="360554.69">
		<activity type="Work">
		</activity>
	</facility>
	<facility id="x1069" x="190669.82" y="358887.23">
		<activity type="Work">
		</activity>
	</facility>
	<facility id="x107" x="168969.09" y="349833.23">
		<activity type="Work">
		</activity>
	</facility>
	<facility id="x1070" x="186339.76" y="358527.8">
		<activity type="Home">
		</activity>
	</facility>
	<facility id="x1071" x="189433.12" y="359973.66">
		<activity type="Work">
		</activity>
	</facility>
	<facility id="x1072" x="187730.06" y="362850.34">
		<activity type="Home">
		</activity>
	</facility>
	<facility id="x1073" x="190882.05" y="359541.21">
		<activity type="Work">
		</activity>
	</facility>
	<facility id="x1074" x="186877.37" y="362632.67">
		<activity type="Home">
		</activity>
	</facility>
	<facility id="x1075" x="189334.02" y="360234.42">
		<activity type="Education">
		</activity>
	</facility>
	<facility id="x1076" x="189861.2" y="363468.59">
		<activity type="Home">
		</activity>
	</facility>
	<facility id="x1077" x="175650.2239" y="358645.3015">
		<activity type="Home">
		</activity>
	</facility>
	<facility id="x1078" x="175795.1179" y="358757.7169">
		<activity type="Home">
		</activity>
	</facility>
	<facility id="x1079" x="175609.6208" y="360559.9113">
		<activity type="Home">
		</activity>
	</facility>
	<facility id="x108" x="163361.45" y="351960.46">
		<activity type="Home">
		</activity>
	</facility>
	<facility id="x1080" x="166400.2493" y="358392.8373">
		<activity type="Home">
		</activity>
	</facility>
	<facility id="x1081" x="176377.44" y="360480.62">
		<activity type="Work">
		</activity>
	</facility>
	<facility id="x1082" x="177864.2045" y="360481.4474">
		<activity type="Home">
		</activity>
	</facility>
	<facility id="x1083" x="176334.84" y="360496.66">
		<activity type="Work">
		</activity>
	</facility>
	<facility id="x1084" x="177425.5206" y="360183.318">
		<activity type="Home">
		</activity>
	</facility>
	<facility id="x1085" x="177468.8141" y="360178.0971">
		<activity type="Home">
		</activity>
	</facility>
	<facility id="x1086" x="177631.9752" y="360385.7057">
		<activity type="Home">
		</activity>
	</facility>
	<facility id="x1087" x="176678.07" y="360735.26">
		<activity type="Work">
		</activity>
	</facility>
	<facility id="x1088" x="177736.8228" y="360479.3331">
		<activity type="Home">
		</activity>
	</facility>
	<facility id="x1089" x="177810.2339" y="360178.8069">
		<activity type="Home">
		</activity>
	</facility>
	<facility id="x109" x="168713.51" y="350160.21">
		<activity type="Work">
		</activity>
	</facility>
	<facility id="x1090" x="177577.7257" y="360269.9038">
		<activity type="Home">
		</activity>
	</facility>
	<facility id="x1091" x="176684.31" y="360755.45">
		<activity type="Work">
		</activity>
	</facility>
	<facility id="x1092" x="177543.0917" y="360357.4018">
		<activity type="Home">
		</activity>
	</facility>
	<facility id="x1093" x="177845.8846" y="360378.2779">
		<activity type="Home">
		</activity>
	</facility>
	<facility id="x1094" x="178107.3884" y="360462.1615">
		<activity type="Home">
		</activity>
	</facility>
	<facility id="x1095" x="176580.91" y="360774.56">
		<activity type="Work">
		</activity>
	</facility>
	<facility id="x1096" x="177686.6997" y="360601.2478">
		<activity type="Home">
		</activity>
	</facility>
	<facility id="x1097" x="178110.8988" y="360457.2469">
		<activity type="Home">
		</activity>
	</facility>
	<facility id="x1098" x="177955.2159" y="360202.2895">
		<activity type="Home">
		</activity>
	</facility>
	<facility id="x1099" x="176403.92" y="360393.76">
		<activity type="Work">
		</activity>
	</facility>
	<facility id="x11" x="175228.4093" y="360450.5526">
		<activity type="Home">
		</activity>
	</facility>
	<facility id="x110" x="168877.81" y="350376.77">
		<activity type="Work">
		</activity>
	</facility>
	<facility id="x1100" x="178108.8809" y="360455.8128">
		<activity type="Home">
		</activity>
	</facility>
	<facility id="x1101" x="178145.1071" y="360434.748">
		<activity type="Home">
		</activity>
	</facility>
	<facility id="x1102" x="178150.9173" y="360431.6211">
		<activity type="Home">
		</activity>
	</facility>
	<facility id="x1103" x="177803.4156" y="360331.6451">
		<activity type="Home">
		</activity>
	</facility>
	<facility id="x1104" x="177463.0416" y="360250.0387">
		<activity type="Home">
		</activity>
	</facility>
	<facility id="x1105" x="177781.594" y="360591.3709">
		<activity type="Home">
		</activity>
	</facility>
	<facility id="x1106" x="178122.4831" y="360446.0137">
		<activity type="Home">
		</activity>
	</facility>
	<facility id="x1107" x="178160.7" y="360414.9">
		<activity type="Home">
		</activity>
	</facility>
	<facility id="x1108" x="177596.0336" y="360439.9917">
		<activity type="Home">
		</activity>
	</facility>
	<facility id="x1109" x="176435.4439" y="358646.5185">
		<activity type="Home">
		</activity>
	</facility>
	<facility id="x111" x="172221.1937" y="359459.9494">
		<activity type="Home">
		</activity>
	</facility>
	<facility id="x1110" x="176009.1083" y="358613.5718">
		<activity type="Home">
		</activity>
	</facility>
	<facility id="x1111" x="176224.202" y="358661.72">
		<activity type="Home">
		</activity>
	</facility>
	<facility id="x1112" x="176495.7798" y="359805.9849">
		<activity type="Home">
		</activity>
	</facility>
	<facility id="x1113" x="177040.9652" y="359915.4885">
		<activity type="Home">
		</activity>
	</facility>
	<facility id="x1114" x="176487.2735" y="359327.7268">
		<activity type="Home">
		</activity>
	</facility>
	<facility id="x1115" x="176624.5818" y="359777.9212">
		<activity type="Home">
		</activity>
	</facility>
	<facility id="x1116" x="177229.2378" y="359276.3042">
		<activity type="Home">
		</activity>
	</facility>
	<facility id="x1117" x="176763.2464" y="359267.9374">
		<activity type="Home">
		</activity>
	</facility>
	<facility id="x1118" x="176995.6766" y="359547.9856">
		<activity type="Home">
		</activity>
	</facility>
	<facility id="x1119" x="176273.9379" y="359619.3402">
		<activity type="Home">
		</activity>
	</facility>
	<facility id="x112" x="171807.1177" y="359331.3221">
		<activity type="Home">
		</activity>
	</facility>
	<facility id="x1120" x="177185.6128" y="359904.5148">
		<activity type="Home">
		</activity>
	</facility>
	<facility id="x1121" x="176741.448" y="359477.8246">
		<activity type="Home">
		</activity>
	</facility>
	<facility id="x1122" x="177068.5982" y="359931.8708">
		<activity type="Home">
		</activity>
	</facility>
	<facility id="x1123" x="176265.93" y="360353.95">
		<activity type="Education">
		</activity>
	</facility>
	<facility id="x1124" x="176188.62" y="360340.13">
		<activity type="Education">
		</activity>
	</facility>
	<facility id="x1125" x="177599.1988" y="360782.0637">
		<activity type="Home">
		</activity>
	</facility>
	<facility id="x1126" x="176971.1583" y="361054.8382">
		<activity type="Home">
		</activity>
	</facility>
	<facility id="x1127" x="177420.4188" y="360945.0995">
		<activity type="Home">
		</activity>
	</facility>
	<facility id="x1128" x="177419.3196" y="360952.3582">
		<activity type="Home">
		</activity>
	</facility>
	<facility id="x1129" x="177030.2208" y="361229.7831">
		<activity type="Home">
		</activity>
	</facility>
	<facility id="x113" x="171997.0033" y="359257.9324">
		<activity type="Home">
		</activity>
	</facility>
	<facility id="x1130" x="177311.328" y="360302.8001">
		<activity type="Home">
		</activity>
	</facility>
	<facility id="x1131" x="176931.75" y="359527.59">
		<activity type="Restaurant">
		</activity>
	</facility>
	<facility id="x1132" x="176936.5476" y="361040.2793">
		<activity type="Home">
		</activity>
	</facility>
	<facility id="x1133" x="177418.7034" y="360950.3551">
		<activity type="Home">
		</activity>
	</facility>
	<facility id="x1134" x="177426.592" y="360709.0846">
		<activity type="Home">
		</activity>
	</facility>
	<facility id="x1135" x="177394.6845" y="360242.3388">
		<activity type="Home">
		</activity>
	</facility>
	<facility id="x1136" x="177257.3646" y="361305.0384">
		<activity type="Home">
		</activity>
	</facility>
	<facility id="x1137" x="176901.1124" y="361017.8649">
		<activity type="Home">
		</activity>
	</facility>
	<facility id="x1138" x="177655.5169" y="360681.4754">
		<activity type="Home">
		</activity>
	</facility>
	<facility id="x1139" x="177333.0466" y="360372.0679">
		<activity type="Home">
		</activity>
	</facility>
	<facility id="x114" x="172028.0392" y="359128.1037">
		<activity type="Home">
		</activity>
	</facility>
	<facility id="x1140" x="177425.4827" y="360956.3643">
		<activity type="Home">
		</activity>
	</facility>
	<facility id="x1141" x="177335.9815" y="360380.8731">
		<activity type="Home">
		</activity>
	</facility>
	<facility id="x1142" x="176879.6238" y="361089.9338">
		<activity type="Home">
		</activity>
	</facility>
	<facility id="x1143" x="176467.1546" y="359032.0385">
		<activity type="Home">
		</activity>
	</facility>
	<facility id="x1144" x="176274.1678" y="358889.9234">
		<activity type="Home">
		</activity>
	</facility>
	<facility id="x1145" x="176096.4863" y="358929.7464">
		<activity type="Home">
		</activity>
	</facility>
	<facility id="x1146" x="176804.4314" y="358937.9111">
		<activity type="Home">
		</activity>
	</facility>
	<facility id="x1147" x="175808.46" y="360116.95">
		<activity type="Services">
		</activity>
	</facility>
	<facility id="x1148" x="177152.7093" y="360198.3933">
		<activity type="Home">
		</activity>
	</facility>
	<facility id="x1149" x="177062.4216" y="360496.9456">
		<activity type="Home">
		</activity>
	</facility>
	<facility id="x115" x="172238.105" y="359404.6836">
		<activity type="Home">
		</activity>
	</facility>
	<facility id="x1150" x="177220.1782" y="360373.3078">
		<activity type="Home">
		</activity>
	</facility>
	<facility id="x1151" x="174813.32" y="360298.09">
		<activity type="Services">
		</activity>
	</facility>
	<facility id="x1152" x="177301.9357" y="360310.4312">
		<activity type="Home">
		</activity>
	</facility>
	<facility id="x1153" x="177208.7285" y="360453.25">
		<activity type="Home">
		</activity>
	</facility>
	<facility id="x1154" x="177156.0106" y="360237.0444">
		<activity type="Home">
		</activity>
	</facility>
	<facility id="x1155" x="177164.9989" y="360245.8675">
		<activity type="Home">
		</activity>
	</facility>
	<facility id="x1156" x="176977.6557" y="360192.4696">
		<activity type="Home">
		</activity>
	</facility>
	<facility id="x1157" x="174939.87" y="360345.06">
		<activity type="Services">
		</activity>
	</facility>
	<facility id="x1158" x="175578.74" y="359866.66">
		<activity type="Services">
		</activity>
	</facility>
	<facility id="x1159" x="177107.2249" y="360247.5022">
		<activity type="Home">
		</activity>
	</facility>
	<facility id="x116" x="172032.4896" y="358903.6134">
		<activity type="Home">
		</activity>
	</facility>
	<facility id="x1160" x="177084.812" y="360455.8895">
		<activity type="Home">
		</activity>
	</facility>
	<facility id="x1161" x="177107.7255" y="360278.0607">
		<activity type="Home">
		</activity>
	</facility>
	<facility id="x1162" x="175100.78" y="360327.74">
		<activity type="Services">
		</activity>
	</facility>
	<facility id="x1163" x="177343.4573" y="360444.7791">
		<activity type="Home">
		</activity>
	</facility>
	<facility id="x1164" x="177099.5468" y="360306.5353">
		<activity type="Home">
		</activity>
	</facility>
	<facility id="x1165" x="177106.2228" y="360259.0242">
		<activity type="Home">
		</activity>
	</facility>
	<facility id="x1166" x="177105.1535" y="360275.0625">
		<activity type="Home">
		</activity>
	</facility>
	<facility id="x1167" x="177221.5118" y="360389.313">
		<activity type="Home">
		</activity>
	</facility>
	<facility id="x1168" x="175612.57" y="359559.61">
		<activity type="Services">
		</activity>
	</facility>
	<facility id="x1169" x="177146.734" y="360323.4533">
		<activity type="Home">
		</activity>
	</facility>
	<facility id="x117" x="172470.2091" y="359999.8443">
		<activity type="Home">
		</activity>
	</facility>
	<facility id="x1170" x="177168.7029" y="360283.4223">
		<activity type="Home">
		</activity>
	</facility>
	<facility id="x1171" x="175586.71" y="360105.01">
		<activity type="Services">
		</activity>
	</facility>
	<facility id="x1172" x="177105.2208" y="360270.0453">
		<activity type="Home">
		</activity>
	</facility>
	<facility id="x1173" x="177097.7241" y="360263.08">
		<activity type="Home">
		</activity>
	</facility>
	<facility id="x1174" x="177155.5196" y="360206.5256">
		<activity type="Home">
		</activity>
	</facility>
	<facility id="x1175" x="174980.43" y="360349.82">
		<activity type="Services">
		</activity>
	</facility>
	<facility id="x1176" x="177153.5049" y="360228.8345">
		<activity type="Home">
		</activity>
	</facility>
	<facility id="x1177" x="175799.5259" y="358446.947">
		<activity type="Home">
		</activity>
	</facility>
	<facility id="x1178" x="174121.75" y="360960.73">
		<activity type="Shopping">
		</activity>
	</facility>
	<facility id="x1179" x="174571.96" y="360513.19">
		<activity type="Shopping">
		</activity>
	</facility>
	<facility id="x118" x="172213.2342" y="359496.0063">
		<activity type="Home">
		</activity>
	</facility>
	<facility id="x1180" x="174704.84" y="360333.72">
		<activity type="Shopping">
		</activity>
	</facility>
	<facility id="x1181" x="174802.68" y="360144.68">
		<activity type="Shopping">
		</activity>
	</facility>
	<facility id="x1182" x="174890.3374" y="359821.41">
		<activity type="Home">
		</activity>
	</facility>
	<facility id="x1183" x="174554.54" y="360675.91">
		<activity type="Shopping">
		</activity>
	</facility>
	<facility id="x1184" x="174749.43" y="359894.02">
		<activity type="Shopping">
		</activity>
	</facility>
	<facility id="x1185" x="174794.99" y="360034.05">
		<activity type="Shopping">
		</activity>
	</facility>
	<facility id="x1186" x="174632.24" y="360559.72">
		<activity type="Shopping">
		</activity>
	</facility>
	<facility id="x1187" x="174595.67" y="360078.42">
		<activity type="Shopping">
		</activity>
	</facility>
	<facility id="x1188" x="174525.05" y="360321.47">
		<activity type="Shopping">
		</activity>
	</facility>
	<facility id="x1189" x="175182.9573" y="359851.126">
		<activity type="Home">
		</activity>
	</facility>
	<facility id="x119" x="171855.1348" y="359320.682">
		<activity type="Home">
		</activity>
	</facility>
	<facility id="x1190" x="174788.21" y="360281.29">
		<activity type="Shopping">
		</activity>
	</facility>
	<facility id="x1191" x="174715.21" y="360466.23">
		<activity type="Shopping">
		</activity>
	</facility>
	<facility id="x1192" x="174714.22" y="360285.16">
		<activity type="Shopping">
		</activity>
	</facility>
	<facility id="x1193" x="174947.4077" y="360065.0444">
		<activity type="Home">
		</activity>
	</facility>
	<facility id="x1194" x="174699.59" y="360491.99">
		<activity type="Shopping">
		</activity>
	</facility>
	<facility id="x1195" x="174276.92" y="359951.2">
		<activity type="Restaurant">
		</activity>
	</facility>
	<facility id="x1196" x="176300.8225" y="358587.4482">
		<activity type="Home">
		</activity>
	</facility>
	<facility id="x1197" x="176395.5923" y="358697.8117">
		<activity type="Home">
		</activity>
	</facility>
	<facility id="x1198" x="177029.2386" y="358474.2484">
		<activity type="Home">
		</activity>
	</facility>
	<facility id="x1199" x="176079.5849" y="359816.5359">
		<activity type="Home">
		</activity>
	</facility>
	<facility id="x12" x="175089.8383" y="360244.6826">
		<activity type="Home">
		</activity>
	</facility>
	<facility id="x120" x="171519.5855" y="358208.4312">
		<activity type="Home">
		</activity>
	</facility>
	<facility id="x1200" x="176874.0246" y="359851.8438">
		<activity type="Home">
		</activity>
	</facility>
	<facility id="x1201" x="176170.9922" y="359653.4531">
		<activity type="Home">
		</activity>
	</facility>
	<facility id="x1202" x="176225.9251" y="359876.3799">
		<activity type="Home">
		</activity>
	</facility>
	<facility id="x1203" x="176969.97" y="359617.07">
		<activity type="Home">
		</activity>
	</facility>
	<facility id="x1204" x="176511.0406" y="359682.8611">
		<activity type="Home">
		</activity>
	</facility>
	<facility id="x1205" x="176314.5773" y="359620.9038">
		<activity type="Home">
		</activity>
	</facility>
	<facility id="x1206" x="176782.8737" y="359238.069">
		<activity type="Home">
		</activity>
	</facility>
	<facility id="x1207" x="176726.5989" y="359938.7372">
		<activity type="Home">
		</activity>
	</facility>
	<facility id="x1208" x="177114.703" y="359910.8704">
		<activity type="Home">
		</activity>
	</facility>
	<facility id="x1209" x="172059.16" y="360076.67">
		<activity type="Services">
		</activity>
	</facility>
	<facility id="x121" x="171939.1646" y="359283.0323">
		<activity type="Home">
		</activity>
	</facility>
	<facility id="x1210" x="174736.2161" y="360879.7876">
		<activity type="Home">
		</activity>
	</facility>
	<facility id="x1211" x="172548.09" y="360387.58">
		<activity type="Services">
		</activity>
	</facility>
	<facility id="x1212" x="174682.0779" y="360964.3353">
		<activity type="Home">
		</activity>
	</facility>
	<facility id="x1213" x="172228.18" y="360217.73">
		<activity type="Services">
		</activity>
	</facility>
	<facility id="x1214" x="174894.2145" y="360483.3335">
		<activity type="Home">
		</activity>
	</facility>
	<facility id="x1215" x="172327.41" y="359902.92">
		<activity type="Services">
		</activity>
	</facility>
	<facility id="x1216" x="174587.9916" y="361240.0828">
		<activity type="Home">
		</activity>
	</facility>
	<facility id="x1217" x="174747.6367" y="360832.4646">
		<activity type="Home">
		</activity>
	</facility>
	<facility id="x1218" x="174872.8932" y="361002.9158">
		<activity type="Home">
		</activity>
	</facility>
	<facility id="x1219" x="174902.4625" y="360495.8561">
		<activity type="Home">
		</activity>
	</facility>
	<facility id="x122" x="172060.6954" y="358987.3274">
		<activity type="Home">
		</activity>
	</facility>
	<facility id="x1220" x="174744.6619" y="360856.1869">
		<activity type="Home">
		</activity>
	</facility>
	<facility id="x1221" x="174841.0464" y="360637.3607">
		<activity type="Home">
		</activity>
	</facility>
	<facility id="x1222" x="174850.5627" y="360567.8944">
		<activity type="Home">
		</activity>
	</facility>
	<facility id="x1223" x="172232.51" y="359956.13">
		<activity type="Services">
		</activity>
	</facility>
	<facility id="x1224" x="174769.5077" y="360866.0028">
		<activity type="Home">
		</activity>
	</facility>
	<facility id="x1225" x="174674.3521" y="360841.9594">
		<activity type="Home">
		</activity>
	</facility>
	<facility id="x1226" x="174629.7195" y="360890.7103">
		<activity type="Home">
		</activity>
	</facility>
	<facility id="x1227" x="171919.98" y="360245.77">
		<activity type="Services">
		</activity>
	</facility>
	<facility id="x1228" x="174813.6625" y="360818.3218">
		<activity type="Home">
		</activity>
	</facility>
	<facility id="x1229" x="174774.5193" y="360880.6093">
		<activity type="Home">
		</activity>
	</facility>
	<facility id="x123" x="172443.8686" y="358688.046">
		<activity type="Home">
		</activity>
	</facility>
	<facility id="x1230" x="174672.8011" y="360753.1476">
		<activity type="Home">
		</activity>
	</facility>
	<facility id="x1231" x="174767.0387" y="360741.7474">
		<activity type="Home">
		</activity>
	</facility>
	<facility id="x1232" x="174749.8717" y="360845.8939">
		<activity type="Home">
		</activity>
	</facility>
	<facility id="x1233" x="175310.0183" y="360304.4503">
		<activity type="Home">
		</activity>
	</facility>
	<facility id="x1234" x="175073.0423" y="360245.7321">
		<activity type="Home">
		</activity>
	</facility>
	<facility id="x1235" x="176335.21" y="358542.81">
		<activity type="Work">
		</activity>
	</facility>
	<facility id="x1236" x="176675.74" y="358336.61">
		<activity type="Work">
		</activity>
	</facility>
	<facility id="x1237" x="177042.37" y="358393.47">
		<activity type="Work">
		</activity>
	</facility>
	<facility id="x1238" x="176479.95" y="358688.43">
		<activity type="Work">
		</activity>
	</facility>
	<facility id="x1239" x="176764.49" y="358408.4">
		<activity type="Work">
		</activity>
	</facility>
	<facility id="x124" x="171807.4329" y="359045.7702">
		<activity type="Home">
		</activity>
	</facility>
	<facility id="x1240" x="176445.48" y="358328.58">
		<activity type="Work">
		</activity>
	</facility>
	<facility id="x1241" x="176272.9681" y="358831.1385">
		<activity type="Home">
		</activity>
	</facility>
	<facility id="x1242" x="177034.5301" y="359549.9283">
		<activity type="Home">
		</activity>
	</facility>
	<facility id="x1243" x="176501.4853" y="359400.5904">
		<activity type="Home">
		</activity>
	</facility>
	<facility id="x1244" x="176544.99" y="359780.0179">
		<activity type="Home">
		</activity>
	</facility>
	<facility id="x1245" x="176766.4012" y="359641.1785">
		<activity type="Home">
		</activity>
	</facility>
	<facility id="x1246" x="176902.9203" y="359465.2507">
		<activity type="Home">
		</activity>
	</facility>
	<facility id="x1247" x="175003.0199" y="360614.4409">
		<activity type="Home">
		</activity>
	</facility>
	<facility id="x1248" x="174958.87" y="360508.4871">
		<activity type="Home">
		</activity>
	</facility>
	<facility id="x1249" x="176705.0838" y="358675.1242">
		<activity type="Home">
		</activity>
	</facility>
	<facility id="x125" x="172429.8471" y="359989.9533">
		<activity type="Home">
		</activity>
	</facility>
	<facility id="x1250" x="176015.0418" y="358619.5053">
		<activity type="Home">
		</activity>
	</facility>