<?xml version="1.0" encoding="UTF-8"?>
<!DOCTYPE facilities SYSTEM "http://www.matsim.org/files/dtd/facilities_v1.dtd">

<facilities>
	<facility id="x0" x="174394.97" y="363783.65">
	</facility>
	<facility id="x1" x="174234.402" y="365077.5691">
		<activity type="casa">
		</activity>
	</facility>
	<facility id="x10" x="176522.2" y="358440.9">
		<activity type="Shopping">
		</activity>
	</facility>
	<facility id="x2" x="173808.3875" y="362623.1466">
		<activity type="casa">
		</activity>
	</facility>
	<facility id="x3" x="174285.31" y="360742.06">
		<activity type="Work">
		</activity>
	</facility>
	<facility id="x4" x="175352.2" y="360285.1">
		<activity type="casa">
		</activity>
	</facility>
	<facility id="x5" x="175215.19" y="360377.01">
		<activity type="casa">
		</activity>
	</facility>
	<facility id="x6" x="176006.9506" y="358627.057">
		<activity type="casa">
		</activity>
	</facility>
	<facility id="x7" x="175961.41" y="357465.75">
		<activity type="Work">
		</activity>
	</facility>
	<facility id="x8" x="173561.55" y="360431.34">
		<activity type="Shopping">
		</activity>
	</facility>
	<facility id="x9" x="177415.4447" y="351341.0254">
	</facility>
</facilities>